7
Properties=species:S:1:pos:R:3:masses:R:1 pbc="F F F"
C        5.36362689       6.09707917       5.90876851      12.01100000
C        6.86445503       6.01977056       5.90171673      12.01100000
O        7.63286628       7.01626847       5.87068342      15.99900000
H        4.92841860       6.97145370       6.07705539       1.00800000
H        4.85010824       5.51499536       6.72011159       1.00800000
H        5.19285237       5.70035920       4.79492009       1.00800000
H        7.34099898       4.87340602       6.04721617       1.00800000
7
Properties=species:S:1:pos:R:3:masses:R:1 pbc="F F F"
C        5.41337155       6.11330522       5.91054006      12.01100000
C        6.90034363       5.99615106       5.86049613      12.01100000
O        7.56700489       7.00326090       5.90317097      15.99900000
H        5.01410092       7.20636008       5.83548503       1.00800000
H        5.00821102       5.60978847       6.81999494       1.00800000
H        5.05226677       5.58590758       4.95924569       1.00800000
H        7.26277104       4.95271192       5.97899386       1.00800000
7
Properties=species:S:1:pos:R:3:masses:R:1 pbc="F F F"
C        5.43000270       6.07061680       5.90923807      12.01100000
C        6.85720367       6.00974113       5.93669447      12.01100000
O        7.57077768       7.01210633       5.86549663      15.99900000
H        5.25285074       7.48340194       5.90239716       1.00800000
H        4.98867281       5.44130628       6.60345113       1.00800000
H        5.16630967       5.73507571       4.92682853       1.00800000
H        7.18550437       4.90132147       5.86657406       1.00800000
