7
Properties=species:S:1:pos:R:3:masses:R:1 pbc="F F F"
C        5.39901916       6.06995007       5.87209873      12.01100000
C        6.85927578       6.03682151       5.89726535      12.01100000
O        7.61925493       7.00758946       5.88400617      15.99900000
H        4.97333842       7.09002999       5.98932101       1.00800000
H        5.06478143       5.48540287       6.80389053       1.00800000
H        4.91424829       5.81516026       5.01078759       1.00800000
H        7.21603582       4.92746594       6.11383130       1.00800000
7
Properties=species:S:1:pos:R:3:masses:R:1 pbc="F F F"
C        5.40469479       6.08530157       5.86969130      12.01100000
C        6.91578654       5.99783019       5.90958807      12.01100000
O        7.55043870       7.00316045       5.89227585      15.99900000
H        5.39543136       7.24409501       5.91618850       1.00800000
H        5.02123489       5.64903103       6.90269346       1.00800000
H        4.79423517       5.68651878       4.96903718       1.00800000
H        7.30876072       5.09039505       5.88050582       1.00800000
7
Properties=species:S:1:pos:R:3:masses:R:1 pbc="F F F"
C        5.45810924       6.11040901       5.87083562      12.01100000
C        6.92051579       5.97788103       5.84866953      12.01100000
O        7.53059854       7.00535021       5.90728894      15.99900000
H        5.13293065       7.13642958       6.02219532       1.00800000
H        4.80461746       5.74970148       6.93210442       1.00800000
H        4.73307024       5.74610837       5.04932951       1.00800000
H        7.47112671       4.94158147       6.13875620       1.00800000
7
Properties=species:S:1:pos:R:3:masses:R:1 pbc="F F F"
C        5.37173424       6.07970808       5.87229160      12.01100000
C        6.88814719       6.02509080       5.93170979      12.01100000
O        7.59054639       7.00164940       5.87453592      15.99900000
H        5.20917853       7.21065871       6.10799093       1.00800000
H        5.01283421       5.63029292       6.67278252       1.00800000
H        5.08605937       5.61564576       5.01399842       1.00800000
H        7.29709061       4.97924949       5.86064271       1.00800000
7
Properties=species:S:1:pos:R:3:masses:R:1 pbc="F F F"
C        5.37018554       6.07545208       5.88620651      12.01100000
C        6.86290150       6.01816650       5.88639774      12.01100000
O        7.62363930       7.01700334       5.90758570      15.99900000
H        5.14550624       7.21913122       5.80063736       1.00800000
H        5.00521531       5.66627220       6.96153586       1.00800000
H        5.01574967       5.42958535       5.03309199       1.00800000
H        7.23271553       5.01037712       5.70970288       1.00800000
7
Properties=species:S:1:pos:R:3:masses:R:1 pbc="F F F"
C        5.46010741       6.12174660       5.86422556      12.01100000
C        6.84800732       5.99246237       5.91002389      12.01100000
O        7.56009481       7.00844963       5.88218232      15.99900000
H        5.16390005       7.14895335       6.07360302       1.00800000
H        4.98448809       5.53070181       6.83252082       1.00800000
H        5.00506717       5.64231985       5.01140570       1.00800000
H        7.36030285       4.89381451       5.97103665       1.00800000
7
Properties=species:S:1:pos:R:3:masses:R:1 pbc="F F F"
C        5.40698398       6.12472492       5.89903232      12.01100000
C        6.88575373       5.97189413       5.92772411      12.01100000
O        7.56176015       7.01828948       5.86044242      15.99900000
H        5.13634009       7.09055564       6.05784486       1.00800000
H        5.00890730       5.45875629       6.74170704       1.00800000
H        5.23465672       5.84824419       4.76517829       1.00800000
H        7.29065224       4.87164520       6.04323409       1.00800000
7
Properties=species:S:1:pos:R:3:masses:R:1 pbc="F F F"
C        5.36842354       6.08481336       5.88519438      12.01100000
C        6.89192066       6.00600460       5.90602467      12.01100000
O        7.60082954       7.01296220       5.88077610      15.99900000
H        4.99438685       7.13351431       6.00772702       1.00800000
H        5.12331297       5.59742385       6.77925686       1.00800000
H        4.98223931       5.79395492       4.86530554       1.00800000
H        7.33649349       4.89798387       6.05638861       1.00800000
7
Properties=species:S:1:pos:R:3:masses:R:1 pbc="F F F"
C        5.43926155       6.07273807       5.92274856      12.01100000
C        6.86008780       6.02124677       5.79129396      12.01100000
O        7.56537643       7.00838198       5.95382309      15.99900000
H        5.33083276       7.22887892       5.57160821       1.00800000
H        5.00631721       6.00724980       6.91000568       1.00800000
H        5.02510412       5.32795360       5.25600987       1.00800000
H        7.17212285       4.89376299       5.73126217       1.00800000
7
Properties=species:S:1:pos:R:3:masses:R:1 pbc="F F F"
C        5.31903860       6.10169539       5.89088959      12.01100000
C        6.89425871       6.01890902       5.87652970      12.01100000
O        7.62101116       7.00425411       5.89411987      15.99900000
H        5.16645006       7.21971639       5.99405891       1.00800000
H        5.25600067       5.40875843       6.64464264       1.00800000
H        4.86800311       5.51190793       4.95604913       1.00800000
H        7.38624668       5.06577801       6.18572807       1.00800000
7
Properties=species:S:1:pos:R:3:masses:R:1 pbc="F F F"
C        5.37732740       6.05714905       5.89199720      12.01100000
C        6.87016047       6.02580393       5.91059525      12.01100000
O        7.60932499       6.99828033       5.89284652      15.99900000
H        5.06387797       7.17851874       5.81426997       1.00800000
H        4.80080976       5.80678535       6.91801017       1.00800000
H        4.96858548       5.70777475       4.98116556       1.00800000
H        7.62151433       5.05654348       5.66812901       1.00800000
7
Properties=species:S:1:pos:R:3:masses:R:1 pbc="F F F"
C        5.35596955       6.11081816       5.90180017      12.01100000
C        6.90056096       6.02629575       5.90211515      12.01100000
O        7.58576871       6.98298114       5.88477867      15.99900000
H        5.04418942       7.33259379       6.00684377       1.00800000
H        5.03024923       5.55186221       6.69152126       1.00800000
H        5.26593809       5.41620728       4.94984876       1.00800000
H        7.38054693       5.04642351       5.84565270       1.00800000
7
Properties=species:S:1:pos:R:3:masses:R:1 pbc="F F F"
C        5.37248017       6.08091740       5.88798333      12.01100000
C        6.85883689       6.03886970       5.88730974      12.01100000
O        7.62681744       7.00664956       5.88632397      15.99900000
H        5.04466015       7.09524633       5.97814752       1.00800000
H        4.92819159       5.48870144       6.86659371       1.00800000
H        5.08155162       5.66705401       4.94386645       1.00800000
H        7.31543113       4.92688388       6.02178841       1.00800000
7
Properties=species:S:1:pos:R:3:masses:R:1 pbc="F F F"
C        5.39845543       6.11045705       5.88294553      12.01100000
C        6.89236876       5.98195721       5.87775492      12.01100000
O        7.56835531       7.01437439       5.91667485      15.99900000
H        5.19083978       7.23255375       5.76687894       1.00800000
H        5.12909804       5.76366941       6.89271657       1.00800000
H        4.92654491       5.43564278       5.12455954       1.00800000
H        7.34219091       4.94957770       5.71838735       1.00800000
7
Properties=species:S:1:pos:R:3:masses:R:1 pbc="F F F"
C        5.37737441       6.11197222       5.87939672      12.01100000
C        6.88088351       6.03112192       5.90451900      12.01100000
O        7.60688143       6.99980958       5.89232044      15.99900000
H        5.15141623       7.05268139       5.86250529       1.00800000
H        4.90777549       5.45643787       6.88427234       1.00800000
H        5.01044695       5.48807308       5.08008646       1.00800000
H        7.29560123       5.01153958       5.78561211       1.00800000
7
Properties=species:S:1:pos:R:3:masses:R:1 pbc="F F F"
C        5.43583885       6.12730704       5.86234024      12.01100000
C        6.88783586       5.98158311       5.87561595      12.01100000
O        7.54415173       7.01394520       5.91558955      15.99900000
H        5.36925930       7.15839620       5.86857033       1.00800000
H        5.15393216       5.67067021       6.89370798       1.00800000
H        4.75898600       5.44822920       5.15780578       1.00800000
H        7.29921761       4.91464433       5.87069897       1.00800000
7
Properties=species:S:1:pos:R:3:masses:R:1 pbc="F F F"
C        5.35084465       6.10339504       5.90754021      12.01100000
C        6.90042857       6.01611093       5.83009481      12.01100000
O        7.61640141       7.01289753       5.92190449      15.99900000
H        5.01186903       7.13393463       5.72526956       1.00800000
H        5.13646672       5.54043066       6.89497481       1.00800000
H        4.87304347       5.49370883       5.01115585       1.00800000
H        7.27598318       4.91398783       6.06297949       1.00800000
7
Properties=species:S:1:pos:R:3:masses:R:1 pbc="F F F"
C        5.35899858       6.09326824       5.91149650      12.01100000
C        6.91676425       5.98612434       5.87038397      12.01100000
O        7.59088233       7.01134555       5.90513902      15.99900000
H        5.02023993       7.07165122       5.79855186       1.00800000
H        4.90651972       5.83312474       6.89593370       1.00800000
H        5.12397714       5.62758269       4.95845854       1.00800000
H        7.35986033       5.05231501       5.78031952       1.00800000
7
Properties=species:S:1:pos:R:3:masses:R:1 pbc="F F F"
C        5.37550851       6.09691256       5.90072541      12.01100000
C        6.85264143       5.99329397       5.87647479      12.01100000
O        7.61074587       7.02258018       5.89411446      15.99900000
H        5.24369540       7.04617359       5.96562098       1.00800000
H        5.01277519       5.62523755       6.64404686       1.00800000
H        5.16073676       5.56435604       5.09080233       1.00800000
H        7.24545306       5.04174127       5.96354896       1.00800000
7
Properties=species:S:1:pos:R:3:masses:R:1 pbc="F F F"
C        5.39438476       6.09712129       5.86748407      12.01100000
C        6.87938984       6.00116772       5.92697971      12.01100000
O        7.61363530       7.02190233       5.88044665      15.99900000
H        5.02220880       7.22366109       5.97848589       1.00800000
H        4.89886834       5.44664825       6.74073464       1.00800000
H        4.81512777       5.58109775       5.08319178       1.00800000
H        7.33694146       4.94055293       5.87283765       1.00800000
7
Properties=species:S:1:pos:R:3:masses:R:1 pbc="F F F"
C        5.37079231       6.10641446       5.86680272      12.01100000
C        6.85010705       6.05875975       5.91897234      12.01100000
O        7.63234423       6.98428665       5.89207143      15.99900000
H        4.91933822       7.10408832       5.88404866       1.00800000
H        5.30134803       5.39866644       6.69647711       1.00800000
H        4.89240871       5.45405266       5.14511744       1.00800000
H        7.29314451       5.03520464       5.86862667       1.00800000
7
Properties=species:S:1:pos:R:3:masses:R:1 pbc="F F F"
C        5.46452569       6.10139151       5.92125877      12.01100000
C        6.83915203       6.02178067       5.89607174      12.01100000
O        7.58166351       6.99892057       5.89121115      15.99900000
H        5.08598116       7.07104367       5.78357102       1.00800000
H        4.96014723       5.59377820       6.62021857       1.00800000
H        5.01070892       5.57574121       5.00251566       1.00800000
H        7.16745535       5.01966755       5.82561393       1.00800000
7
Properties=species:S:1:pos:R:3:masses:R:1 pbc="F F F"
C        5.41275028       6.09862981       5.90273017      12.01100000
C        6.88145731       5.99693899       5.92393535      12.01100000
O        7.56271203       7.00820338       5.85894222      15.99900000
H        5.22301702       7.13518560       6.12527115       1.00800000
H        4.99423486       5.50448320       6.70395684       1.00800000
H        5.12982895       5.86798927       4.67136472       1.00800000
H        7.29085220       4.93414509       6.13226593       1.00800000
7
Properties=species:S:1:pos:R:3:masses:R:1 pbc="F F F"
C        5.31307408       6.08876824       5.90735874      12.01100000
C        6.89130289       6.01110182       5.85072425      12.01100000
O        7.65423685       7.02206250       5.91743145      15.99900000
H        4.97571038       7.03704560       5.77288478       1.00800000
H        5.12915651       5.65271175       6.84685280       1.00800000
H        4.97901818       5.40455043       5.00317984       1.00800000
H        7.17175592       5.07626175       5.89880725       1.00800000
7
Properties=species:S:1:pos:R:3:masses:R:1 pbc="F F F"
C        5.37344602       6.08391246       5.88596046      12.01100000
C        6.83810755       6.03301239       5.90089108      12.01100000
O        7.64604314       7.01053619       5.89061088      15.99900000
H        4.96658884       7.22605952       5.92850942       1.00800000
H        5.10682807       5.44453482       6.77925837       1.00800000
H        5.07103915       5.44658321       5.00736681       1.00800000
H        7.15572126       5.03312498       5.88949355       1.00800000
7
Properties=species:S:1:pos:R:3:masses:R:1 pbc="F F F"
C        5.34534090       6.11579013       5.88193135      12.01100000
C        6.88629317       5.99306597       5.92911904      12.01100000
O        7.61451011       7.00463076       5.87903373      15.99900000
H        5.07594867       7.05861962       5.98618143       1.00800000
H        4.96203266       5.55277514       6.70824122       1.00800000
H        5.10665432       5.52180775       5.04419580       1.00800000
H        7.41676176       5.20697167       5.76141379       1.00800000
7
Properties=species:S:1:pos:R:3:masses:R:1 pbc="F F F"
C        5.37819932       6.06240407       5.89409624      12.01100000
C        6.87728793       5.99138779       5.93885082      12.01100000
O        7.60164485       7.01948004       5.86447476      15.99900000
H        5.09025402       7.20049084       6.04580477       1.00800000
H        4.88507681       5.69022247       6.77567517       1.00800000
H        5.13072863       5.84850188       4.78390039       1.00800000
H        7.37531115       5.02140199       5.86481661       1.00800000
7
Properties=species:S:1:pos:R:3:masses:R:1 pbc="F F F"
C        5.42360437       6.12286811       5.89305929      12.01100000
C        6.87667160       6.00676413       5.95965965      12.01100000
O        7.57744013       7.00396817       5.85423376      15.99900000
H        5.03215875       6.97108708       5.93458273       1.00800000
H        4.89663055       5.36587010       6.71193875       1.00800000
H        5.07283823       5.87298173       4.87232183       1.00800000
H        7.33023186       4.89319788       5.87830511       1.00800000
7
Properties=species:S:1:pos:R:3:masses:R:1 pbc="F F F"
C        5.36959673       6.07150915       5.87585767      12.01100000
C        6.84130168       6.05881914       5.82020555      12.01100000
O        7.64023329       6.99038738       5.93999261      15.99900000
H        5.06834331       7.04027600       5.81260858       1.00800000
H        5.13254355       5.81001123       6.91408602       1.00800000
H        4.74936091       5.34915535       5.23599858       1.00800000
H        7.44994655       5.11094939       5.93994663       1.00800000
7
Properties=species:S:1:pos:R:3:masses:R:1 pbc="F F F"
C        5.38740287       6.08543364       5.89325777      12.01100000
C        6.84963858       6.03143135       5.82861259      12.01100000
O        7.60123069       6.99283407       5.92511600      15.99900000
H        5.03737321       7.15894733       5.87924593       1.00800000
H        5.14867347       5.82711551       6.94861308       1.00800000
H        5.02418333       5.48821219       5.01206704       1.00800000
H        7.49750410       4.95770661       5.99132334       1.00800000
