7
Properties=species:S:1:pos:R:3:masses:R:1 pbc="F F F"
C        5.41144558       6.11228260       5.87393159      12.01100000
C        6.90335580       6.04313681       5.90756596      12.01100000
O        7.56151356       6.98239561       5.89531967      15.99900000
H        5.11055793       7.13093886       5.95678546       1.00800000
H        5.07386129       5.65342879       6.72022036       1.00800000
H        4.89355662       5.48255164       5.09872714       1.00800000
H        7.33358562       4.87134841       5.81794760       1.00800000
7
Properties=species:S:1:pos:R:3:masses:R:1 pbc="F F F"
C        5.37516662       6.10135862       5.89101730      12.01100000
C        6.88456575       5.97486978       5.94072815      12.01100000
O        7.60680752       7.03149119       5.85168468      15.99900000
H        5.15057525       7.12854748       6.13137407       1.00800000
H        4.73194721       5.36407939       6.69319693       1.00800000
H        5.14882122       5.80694749       4.84687705       1.00800000
H        7.31750218       5.00305578       6.01607731       1.00800000
7
Properties=species:S:1:pos:R:3:masses:R:1 pbc="F F F"
C        5.45585948       6.11085496       5.87598932      12.01100000
C        6.85765490       5.99994702       5.93430478      12.01100000
O        7.55968124       6.99693578       5.87785691      15.99900000
H        5.18487371       7.07526082       5.92599984       1.00800000
H        5.03808705       5.55366691       6.85210264       1.00800000
H        4.98420305       5.70904372       4.92847554       1.00800000
H        7.24881993       5.10116038       5.82114283       1.00800000
7
Properties=species:S:1:pos:R:3:masses:R:1 pbc="F F F"
C        5.40446314       6.08520657       5.88187969      12.01100000
C        6.89819744       5.98802341       5.86444640      12.01100000
O        7.59868040       7.02955197       5.92627672      15.99900000
H        5.07994011       7.16541850       5.61317448       1.00800000
H        4.93614888       5.74546731       6.87808986       1.00800000
H        4.68334478       5.52075679       5.33007780       1.00800000
H        7.26688104       4.93749716       5.70008198       1.00800000
7
Properties=species:S:1:pos:R:3:masses:R:1 pbc="F F F"
C        5.36961629       6.07875927       5.90452656      12.01100000
C        6.85691670       6.03945833       5.91570606      12.01100000
O        7.61973002       7.01178458       5.87417978      15.99900000
H        5.05076242       7.15331404       5.99099078       1.00800000
H        5.10085761       5.52231197       6.54665725       1.00800000
H        5.22583715       5.64674280       4.98850703       1.00800000
H        7.16187276       4.79271965       5.94150669       1.00800000
